-------------------------------------------------------
          Amber 18 SANDER                              2018
          -------------------------------------------------------

  [-O]verwriting output

File Assignments:

 Here is the input file:

constant P
 &cntrl
  imin=0, ntx=5, irest=1,
  ntb=2, ntc=2, ntf=2,
  ntp=1, pres0=1.01325, taup=5,
  nstlim=1000, dt=0.002, cut=9.0,
  ntt=3, temp0=300, gamma_ln=1,
  ntpr=1000, ntwx=10000, ntwr=10000, tempi=300,ioutfm=1,ig=-1,
  ntr=1,
  restraint_wt=10.0,              ! Restraint force kcal/mol
  restraintmask="(:1-13)&(@CA,N,O)",   !put restraint on protein backbone
 /
 &ewald
 /

--------------------------------------------------------------------------------
   1.  RESOURCE   USE:
--------------------------------------------------------------------------------

 getting box info from netcdf restart file
 NATOM  =    4536 NTYPES =      15 NBONH =    3349 MBONA  =    1174
 NTHETH =     351 MTHETA =     139 NPHIH =     593 MPHIA  =     436
 NHPARM =       0 NPARM  =       0 NNB   =    8942 NRES   =    1091
 NBONA  =    1174 NTHETA =     139 NPHIA =     436 NUMBND =      29
 NUMANG =      58 NPTRA  =      71 NATYP =      21 NPHB   =       1
 IFBOX  =       2 NMXRS  =      23 IFCAP =       0 NEXTRA =    1066
 NCOPY  =       0

     BOX TYPE: TRUNCATED OCTAHEDRON
Note: ig = -1. Setting random seed to   397665 based on wallclock time in microseconds.

--------------------------------------------------------------------------------
   2.  CONTROL  DATA  FOR  THE  RUN
--------------------------------------------------------------------------------

default_name

General flags:
     imin    =       0, nmropt  =       0

Nature and format of input:
     ntx     =       5, irest   =       1, ntrx    =       1

Nature and format of output:
     ntxo    =       2, ntpr    =    1000, ntrx    =       1, ntwr    =   10000
     iwrap   =       0, ntwx    =   10000, ntwv    =       0, ntwe    =       0
     ioutfm  =       1, ntwprt  =       0, idecomp =       0, rbornstat=      0

Potential function:
     ntf     =       2, ntb     =       2, igb     =       0, nsnb    =      25
     ipol    =       0, gbsa    =       0, iesp    =       0
     dielc   =   1.00000, cut     =   9.00000, intdiel =   1.00000

Frozen or restrained atoms:
     ibelly  =       0, ntr     =       1
     restraint_wt =  10.00000

Molecular dynamics:
     nstlim  =      1000, nscm    =         0, nrespa  =         1
     t       =   0.00000, dt      =   0.00200, vlimit  =  20.00000

Langevin dynamics temperature regulation:
     ig      =  397665
     temp0   = 300.00000, tempi   = 300.00000, gamma_ln=   1.00000

Pressure regulation:
     ntp     =       1
     pres0   =   1.01325, comp    =  44.60000, taup    =   5.00000

SHAKE:
     ntc     =       2, jfastw  =       0
     tol     =   0.00001

Extra-points options:
     frameon =       1, chngmask=       1

Ewald parameters:
     verbose =       0, ew_type =       0, nbflag  =       1, use_pme =       1
     vdwmeth =       1, eedmeth =       1, netfrc  =       1
     Box X =   38.905   Box Y =   38.905   Box Z =   38.905
     Alpha =  109.471   Beta  =  109.471   Gamma =  109.471
     NFFT1 =   40       NFFT2 =   40       NFFT3 =   40
     Cutoff=    9.000   Tol   =0.100E-04
     Ewald Coefficient =  0.30768
     Interpolation order =    4

    LOADING THE CONSTRAINED ATOMS AS GROUPS

   5.  REFERENCE ATOM COORDINATES

  defa
     Mask (:1-13)&(@CA,N,O); matches    39 atoms

--------------------------------------------------------------------------------
   3.  ATOMIC COORDINATES AND VELOCITIES
--------------------------------------------------------------------------------

default_name
 begin time read from input coords =     2.000 ps

 Number of triangulated 3-point waters found:     1066

     Sum of charges from parm topology file =   6.00000583
     Assuming uniform neutralizing plasma

--------------------------------------------------------------------------------
   4.  RESULTS
 NSTEP =     1000   TIME(PS) =       4.000  TEMP(K) =   287.48  PRESS = -2572.7
 Etot   =    -21440.5291  EKtot   =      2016.8811  EPtot      =    -23457.4102
 BOND   =        35.4903  ANGLE   =       158.8621  DIHED      =       167.9619
 1-4 NB =        57.7547  1-4 EEL =       985.7089  VDWAALS    =      6654.1328
 EELEC  =    -31547.6260  EHBOND  =         0.0000  RESTRAINT  =        30.3052
 EAMBER (non-restraint)  =    -23487.7154
 EKCMT  =       962.2866  VIRIAL  =      3349.2917  VOLUME     =     42972.5327
                                                    Density    =         0.8159
 Ewald error estimate:   0.3636E-03
 ------------------------------------------------------------------------------

      A V E R A G E S   O V E R    1000 S T E P S

 NSTEP =     1000   TIME(PS) =       4.000  TEMP(K) =   243.49  PRESS = -2997.5
 Etot   =    -21961.9460  EKtot   =      1708.3050  EPtot      =    -23670.2510
 BOND   =        46.1957  ANGLE   =       169.0859  DIHED      =       182.2513
 1-4 NB =        58.9588  1-4 EEL =       981.0241  VDWAALS    =      6803.2172
 EELEC  =    -32027.2556  EHBOND  =         0.0000  RESTRAINT  =       116.2717
 EAMBER (non-restraint)  =    -23786.5227
 EKCMT  =       800.2046  VIRIAL  =      3657.0876  VOLUME     =     44094.4166
                                                    Density    =         0.7954
 Ewald error estimate:   0.5528E-03
 ------------------------------------------------------------------------------

      R M S  F L U C T U A T I O N S

 NSTEP =     1000   TIME(PS) =       4.000  TEMP(K) =    39.74  PRESS =   450.4
 Etot   =       416.4466  EKtot   =       278.8033  EPtot      =       204.2123
 BOND   =         9.2044  ANGLE   =        24.4202  DIHED      =        12.5149
 1-4 NB =         6.6528  1-4 EEL =        11.6593  VDWAALS    =       174.3522
 EELEC  =       478.8685  EHBOND  =         0.0000  RESTRAINT  =       222.7220
 EAMBER (non-restraint)  =       -18.5096
 EKCMT  =       148.7923  VIRIAL  =       375.0833  VOLUME     =       686.3904
                                                    Density    =         0.0124
 Ewald error estimate:   0.1453E-03
 ------------------------------------------------------------------------------
