-------------------------------------------------------
          Amber 18 SANDER                              2018
          -------------------------------------------------------

  [-O]verwriting output

File Assignments:

 Here is the input file:

Production
 &cntrl
  imin=0, ntx=5, irest=1,
  ntb=2, ntc=2, ntf=2,  ioutfm=1,
  ntp=1, pres0=1.01325, taup=5,
  nstlim=25000, dt=0.002, cut=9.0, !50ps
  ntt=3, tempi=300, temp0=300, gamma_ln=1,
  ntpr=500, ntwx=500, ntwr=500,
 /
 &ewald
 /

--------------------------------------------------------------------------------
   1.  RESOURCE   USE:
--------------------------------------------------------------------------------

 getting box info from netcdf restart file
 NATOM  =    4536 NTYPES =      15 NBONH =    3349 MBONA  =    1174
 NTHETH =     351 MTHETA =     139 NPHIH =     593 MPHIA  =     436
 NHPARM =       0 NPARM  =       0 NNB   =    8942 NRES   =    1091
 NBONA  =    1174 NTHETA =     139 NPHIA =     436 NUMBND =      29
 NUMANG =      58 NPTRA  =      71 NATYP =      21 NPHB   =       1
 IFBOX  =       2 NMXRS  =      23 IFCAP =       0 NEXTRA =    1066
 NCOPY  =       0

     BOX TYPE: TRUNCATED OCTAHEDRON

--------------------------------------------------------------------------------
   2.  CONTROL  DATA  FOR  THE  RUN
--------------------------------------------------------------------------------

default_name

General flags:
     imin    =       0, nmropt  =       0

Nature and format of input:
     ntx     =       5, irest   =       1, ntrx    =       1

Nature and format of output:
     ntxo    =       2, ntpr    =     500, ntrx    =       1, ntwr    =     500
     iwrap   =       0, ntwx    =     500, ntwv    =       0, ntwe    =       0
     ioutfm  =       1, ntwprt  =       0, idecomp =       0, rbornstat=      0

Potential function:
     ntf     =       2, ntb     =       2, igb     =       0, nsnb    =      25
     ipol    =       0, gbsa    =       0, iesp    =       0
     dielc   =   1.00000, cut     =   9.00000, intdiel =   1.00000

Frozen or restrained atoms:
     ibelly  =       0, ntr     =       0

Molecular dynamics:
     nstlim  =     25000, nscm    =      1000, nrespa  =         1
     t       =   0.00000, dt      =   0.00200, vlimit  =  20.00000

Langevin dynamics temperature regulation:
     ig      =   71277
     temp0   = 300.00000, tempi   = 300.00000, gamma_ln=   1.00000

Pressure regulation:
     ntp     =       1
     pres0   =   1.01325, comp    =  44.60000, taup    =   5.00000

SHAKE:
     ntc     =       2, jfastw  =       0
     tol     =   0.00001

Extra-points options:
     frameon =       1, chngmask=       1

Ewald parameters:
     verbose =       0, ew_type =       0, nbflag  =       1, use_pme =       1
     vdwmeth =       1, eedmeth =       1, netfrc  =       1
     Box X =   38.218   Box Y =   38.218   Box Z =   38.218
     Alpha =  109.471   Beta  =  109.471   Gamma =  109.471
     NFFT1 =   40       NFFT2 =   40       NFFT3 =   40
     Cutoff=    9.000   Tol   =0.100E-04
     Ewald Coefficient =  0.30768
     Interpolation order =    4

--------------------------------------------------------------------------------
   3.  ATOMIC COORDINATES AND VELOCITIES
--------------------------------------------------------------------------------

default_name
 begin time read from input coords =     4.000 ps

 Number of triangulated 3-point waters found:     1066

     Sum of charges from parm topology file =   6.00000583
     Assuming uniform neutralizing plasma

--------------------------------------------------------------------------------
   4.  RESULTS
 NSTEP =      500   TIME(PS) =       5.000  TEMP(K) =   309.90  PRESS = -1944.1
 Etot   =    -21429.2404  EKtot   =      2174.1778  EPtot      =    -23603.4182
 BOND   =        36.9653  ANGLE   =       157.7706  DIHED      =       168.1986
 1-4 NB =        49.4015  1-4 EEL =       985.6513  VDWAALS    =      6780.6780
 EELEC  =    -31782.0836  EHBOND  =         0.0000  RESTRAINT  =         0.0000
 EKCMT  =      1032.8769  VIRIAL  =      2797.2204  VOLUME     =     42032.7457
                                                    Density    =         0.8342
 Ewald error estimate:   0.7720E-03
 ------------------------------------------------------------------------------

      A V E R A G E S   O V E R   25000 S T E P S

 NSTEP =    25000   TIME(PS) =      54.000  TEMP(K) =   302.79  PRESS =  -580.4
 Etot   =    -22596.8077  EKtot   =      2124.3370  EPtot      =    -24721.1447
 BOND   =        40.9380  ANGLE   =       140.1629  DIHED      =       158.9243
 1-4 NB =        52.9402  1-4 EEL =       974.5319  VDWAALS    =      7360.9540
 EELEC  =    -33449.5960  EHBOND  =         0.0000  RESTRAINT  =         0.0000
 EKCMT  =       983.8720  VIRIAL  =      1458.2659  VOLUME     =     34914.7803
                                                    Density    =         1.0081
 Ewald error estimate:   0.6422E-03
 ------------------------------------------------------------------------------

      R M S  F L U C T U A T I O N S

 NSTEP =    25000   TIME(PS) =      54.000  TEMP(K) =     5.30  PRESS =   921.7
 Etot   =       397.1218  EKtot   =        37.1916  EPtot      =       390.7208
 BOND   =         5.4187  ANGLE   =         9.5944  DIHED      =         4.9327
 1-4 NB =         3.1040  1-4 EEL =         7.1294  VDWAALS    =       257.3820
 EELEC  =       636.8350  EHBOND  =         0.0000  RESTRAINT  =         0.0000
 EKCMT  =        25.7187  VIRIAL  =       773.6952  VOLUME     =      2292.7840
                                                    Density    =         0.0593
 Ewald error estimate:   0.2046E-03
 ------------------------------------------------------------------------------
